data/bare_env_small_grid_test/grid.xiidm
<?xml version="1.0" encoding="UTF-8"?>
<iidm:network xmlns:iidm="http://www.itesla_project.eu/schema/iidm/1_0" xmlns:bbsp="http://www.itesla_project.eu/schema/iidm/ext/busbarsectionposition/1_0" xmlns:cp="http://www.powsybl.org/schema/iidm/ext/connectable_position/1_1" xmlns:clps="http://www.itesla_project.eu/schema/iidm/ext/current-limits-per-season/1_0" xmlns:gs="http://www.powsybl.org/schema/iidm/ext/generator_startup/1_1" xmlns:apc="http://www.powsybl.org/schema/iidm/ext/active_power_control/1_1" xmlns:ld="http://www.itesla_project.eu/schema/iidm/ext/load_detail/1_0" id="test_case" caseDate="1900-01-01T00:00:00.000+02:00" forecastDistance="0" sourceFormat="NF">
    <iidm:substation id="GEN.P" country="FR" tso="RTE">
        <iidm:property name="paysCvg" value="FRANCE"/>
        <iidm:property name="regionCvg" value="LYON"/>
        <iidm:voltageLevel id="1GEN.P7" nominalV="400.0" lowVoltageLimit="280.0" highVoltageLimit="520.0" topologyKind="NODE_BREAKER">
            <iidm:property name="codeOI" value="1GEN.-P71"/>
            <iidm:nodeBreakerTopology nodeCount="4">
                <iidm:busbarSection id="1GEN.P7_1" name="1" node="0" v="408.4221270472645" angle="-4.635507354454688"/>
                <iidm:switch id="1GEN.P7_1GEN.P7-1GEN.P7.SJB.0-GEN.PAT761E1SA_F" name="1GEN.P7-1GEN.P7.SJB.0-GEN.PAT761E1SA_F" kind="DISCONNECTOR" retained="false" open="false" fictitious="true" node1="0" node2="1"/>
                <iidm:switch id="1GEN.P7_1GEN.P7-1GEN.P7.SJB.0-GEN.PAT761E2SA_F" name="1GEN.P7-1GEN.P7.SJB.0-GEN.PAT761E2SA_F" kind="DISCONNECTOR" retained="false" open="false" fictitious="true" node1="0" node2="2"/>
                <iidm:switch id="1GEN.P7_1GEN.P7-1GEN.P7.SJB.0-GEN.PAT761E3SA_F" name="1GEN.P7-1GEN.P7.SJB.0-GEN.PAT761E3SA_F" kind="DISCONNECTOR" retained="false" open="false" fictitious="true" node1="0" node2="3"/>
            </iidm:nodeBreakerTopology>
        </iidm:voltageLevel>
        <iidm:voltageLevel id="GEN.PP1" nominalV="20.0" lowVoltageLimit="16.0" highVoltageLimit="24.0" topologyKind="NODE_BREAKER">
            <iidm:property name="codeOI" value="GEN.P-P11"/>
            <iidm:nodeBreakerTopology nodeCount="3">
                <iidm:busbarSection id="GEN.PP1_1" name="1" node="0" v="22.10531834810078" angle="-4.635507354454689"/>
                <iidm:switch id="GEN.PP1_GEN.P1REAC.1 DJ.MCOMP_OC" name="GEN.P1REAC.1 DJ.MCOMP_OC" kind="BREAKER" retained="true" open="true" node1="0" node2="1"/>
                <iidm:switch id="GEN.PP1_GEN.PP1-GEN.PP1.BTS.1-GEN.PAT761E3SA_F" name="GEN.PP1-GEN.PP1.BTS.1-GEN.PAT761E3SA_F" kind="DISCONNECTOR" retained="false" open="false" fictitious="true" node1="0" node2="2"/>
            </iidm:nodeBreakerTopology>
            <iidm:shunt id="GEN.P1REAC.1" bPerSection="-0.14512500166893005" maximumSectionCount="1" currentSectionCount="1" node="1">
                <iidm:property name="qMax" value="-58.05"/>
                <iidm:property name="codeOI" value="GEN.P-MC311"/>
            </iidm:shunt>
        </iidm:voltageLevel>
        <iidm:voltageLevel id="GEN.PP6" nominalV="225.0" lowVoltageLimit="220.0" highVoltageLimit="245.00001525878906" topologyKind="NODE_BREAKER">
            <iidm:property name="codeOI" value="GEN.P-P61"/>
            <iidm:nodeBreakerTopology nodeCount="50">
                <iidm:busbarSection id="GEN.PP6_1A" name="1A" node="0" v="241.7819780445928" angle="-4.176811361566761"/>
                <iidm:busbarSection id="GEN.PP6_1B" name="1B" node="1" v="241.7819780445928" angle="-4.176811361566761"/>
                <iidm:busbarSection id="GEN.PP6_2A" name="2A" node="2" v="241.7819780445928" angle="-4.176811361566761"/>
                <iidm:busbarSection id="GEN.PP6_2B" name="2B" node="3" v="241.7819780445928" angle="-4.176811361566761"/>
                <iidm:switch id="GEN.PP6_GEN.P6TRO.2AB SA.2A_OC" name="GEN.P6TRO.2AB SA.2A_OC" kind="DISCONNECTOR" retained="false" open="false" node1="23" node2="2"/>
                <iidm:switch id="GEN.PP6_GEN.P6VOUGL.1 SA.1_OC" name="GEN.P6VOUGL.1 SA.1_OC" kind="DISCONNECTOR" retained="false" open="true" node1="1" node2="24"/>
                <iidm:switch id="GEN.PP6_GEN.P6GENIS.2 SA.1_OC" name="GEN.P6GENIS.2 SA.1_OC" kind="DISCONNECTOR" retained="false" open="false" node1="0" node2="25"/>
                <iidm:switch id="GEN.PP6_GEN.P6AT761 SA.1_OC" name="GEN.P6AT761 SA.1_OC" kind="DISCONNECTOR" retained="false" open="true" node1="1" node2="26"/>
                <iidm:switch id="GEN.PP6_GEN.P6CHAV6.1 SA.1_OC" name="GEN.P6CHAV6.1 SA.1_OC" kind="DISCONNECTOR" retained="false" open="false" node1="0" node2="27"/>
                <iidm:switch id="GEN.PP6_GEN.P6GENIS.1 SA.2_OC" name="GEN.P6GENIS.1 SA.2_OC" kind="DISCONNECTOR" retained="false" open="false" node1="2" node2="28"/>
                <iidm:switch id="GEN.PP6_GEN.P6GENIS.5 SA.2_OC" name="GEN.P6GENIS.5 SA.2_OC" kind="DISCONNECTOR" retained="false" open="true" node1="3" node2="29"/>
                <iidm:switch id="GEN.PP6_GEN.P6ZCRUS.1 SA.2_OC" name="GEN.P6ZCRUS.1 SA.2_OC" kind="DISCONNECTOR" retained="false" open="true" node1="3" node2="30"/>
                <iidm:switch id="GEN.PP6_GEN.P6GENIS.4 SA.2_OC" name="GEN.P6GENIS.4 SA.2_OC" kind="DISCONNECTOR" retained="false" open="false" node1="3" node2="31"/>
                <iidm:switch id="GEN.PP6_GEN.P6ZCRUS.1 SA.1_OC" name="GEN.P6ZCRUS.1 SA.1_OC" kind="DISCONNECTOR" retained="false" open="false" node1="1" node2="30"/>
                <iidm:switch id="GEN.PP6_GEN.P6COUPL.A SA.1_OC" name="GEN.P6COUPL.A SA.1_OC" kind="DISCONNECTOR" retained="false" open="false" node1="32" node2="0"/>
                <iidm:switch id="GEN.PP6_GEN.P6GENIS.3 SA.2_OC" name="GEN.P6GENIS.3 SA.2_OC" kind="DISCONNECTOR" retained="false" open="true" node1="3" node2="33"/>
                <iidm:switch id="GEN.PP6_GEN.P6COUPL.A SA.2_OC" name="GEN.P6COUPL.A SA.2_OC" kind="DISCONNECTOR" retained="false" open="false" node1="2" node2="34"/>
                <iidm:switch id="GEN.PP6_GEN.P6AT762 SA.2_OC" name="GEN.P6AT762 SA.2_OC" kind="DISCONNECTOR" retained="false" open="false" node1="2" node2="35"/>
                <iidm:switch id="GEN.PP6_GEN.P6GENIS.3 SA.1_OC" name="GEN.P6GENIS.3 SA.1_OC" kind="DISCONNECTOR" retained="false" open="true" node1="1" node2="33"/>
                <iidm:switch id="GEN.PP6_GEN.P6CORNI.2 SA.2_OC" name="GEN.P6CORNI.2 SA.2_OC" kind="DISCONNECTOR" retained="false" open="true" node1="2" node2="36"/>
                <iidm:switch id="GEN.PP6_GEN.P6COUPL.B SA.2_OC" name="GEN.P6COUPL.B SA.2_OC" kind="DISCONNECTOR" retained="false" open="false" node1="3" node2="37"/>
                <iidm:switch id="GEN.PP6_GEN.P6TRO.1AB SA.1A_OC" name="GEN.P6TRO.1AB SA.1A_OC" kind="DISCONNECTOR" retained="false" open="false" node1="38" node2="0"/>
                <iidm:switch id="GEN.PP6_GEN.P6GENIS.5 SA.1_OC" name="GEN.P6GENIS.5 SA.1_OC" kind="DISCONNECTOR" retained="false" open="false" node1="1" node2="29"/>
                <iidm:switch id="GEN.PP6_GEN.P6GENIS.1 SA.1_OC" name="GEN.P6GENIS.1 SA.1_OC" kind="DISCONNECTOR" retained="false" open="true" node1="0" node2="28"/>
                <iidm:switch id="GEN.PP6_GEN.P6IZERN.1 SA.1_OC" name="GEN.P6IZERN.1 SA.1_OC" kind="DISCONNECTOR" retained="false" open="true" node1="0" node2="39"/>
                <iidm:switch id="GEN.PP6_GEN.P6.VERB.2 SA.2_OC" name="GEN.P6.VERB.2 SA.2_OC" kind="DISCONNECTOR" retained="false" open="false" node1="3" node2="40"/>
                <iidm:switch id="GEN.PP6_GEN.P6AT762 SA.1_OC" name="GEN.P6AT762 SA.1_OC" kind="DISCONNECTOR" retained="false" open="true" node1="0" node2="35"/>
                <iidm:switch id="GEN.PP6_GEN.P6AT761 SA.2_OC" name="GEN.P6AT761 SA.2_OC" kind="DISCONNECTOR" retained="false" open="false" node1="3" node2="26"/>
                <iidm:switch id="GEN.PP6_GEN.P6IZERN.1 SA.2_OC" name="GEN.P6IZERN.1 SA.2_OC" kind="DISCONNECTOR" retained="false" open="false" node1="2" node2="39"/>
                <iidm:switch id="GEN.PP6_GEN.P6COUPL.B SA.1_OC" name="GEN.P6COUPL.B SA.1_OC" kind="DISCONNECTOR" retained="false" open="false" node1="41" node2="1"/>
                <iidm:switch id="GEN.PP6_GEN.P6BOISS.1 SA.2_OC" name="GEN.P6BOISS.1 SA.2_OC" kind="DISCONNECTOR" retained="false" open="true" node1="3" node2="42"/>
                <iidm:switch id="GEN.PP6_GEN.P6CORNI.2 SA.1_OC" name="GEN.P6CORNI.2 SA.1_OC" kind="DISCONNECTOR" retained="false" open="false" node1="0" node2="36"/>
                <iidm:switch id="GEN.PP6_GEN.P6TRO.1AB SA.1B_OC" name="GEN.P6TRO.1AB SA.1B_OC" kind="DISCONNECTOR" retained="false" open="false" node1="1" node2="43"/>
                <iidm:switch id="GEN.PP6_GEN.P6VOUGL.1 SA.2_OC" name="GEN.P6VOUGL.1 SA.2_OC" kind="DISCONNECTOR" retained="false" open="false" node1="3" node2="24"/>
                <iidm:switch id="GEN.PP6_GEN.P6CPNOL.1 SA.2_OC" name="GEN.P6CPNOL.1 SA.2_OC" kind="DISCONNECTOR" retained="false" open="true" node1="3" node2="44"/>
                <iidm:switch id="GEN.PP6_GEN.P6ARLOD.1 SA.1_OC" name="GEN.P6ARLOD.1 SA.1_OC" kind="DISCONNECTOR" retained="false" open="true" node1="1" node2="45"/>
                <iidm:switch id="GEN.PP6_GEN.P6CPNOL.1 SA.1_OC" name="GEN.P6CPNOL.1 SA.1_OC" kind="DISCONNECTOR" retained="false" open="false" node1="1" node2="44"/>
                <iidm:switch id="GEN.PP6_GEN.P6.VERB.1 SA.2_OC" name="GEN.P6.VERB.1 SA.2_OC" kind="DISCONNECTOR" retained="false" open="true" node1="2" node2="46"/>
                <iidm:switch id="GEN.PP6_GEN.P6CHAV6.1 SA.2_OC" name="GEN.P6CHAV6.1 SA.2_OC" kind="DISCONNECTOR" retained="false" open="true" node1="2" node2="27"/>
                <iidm:switch id="GEN.PP6_GEN.P6GENIS.6 SA.2_OC" name="GEN.P6GENIS.6 SA.2_OC" kind="DISCONNECTOR" retained="false" open="false" node1="2" node2="47"/>
                <iidm:switch id="GEN.PP6_GEN.P6TRO.2AB SA.2B_OC" name="GEN.P6TRO.2AB SA.2B_OC" kind="DISCONNECTOR" retained="false" open="false" node1="3" node2="48"/>
                <iidm:switch id="GEN.PP6_GEN.P6GENIS.6 SA.1_OC" name="GEN.P6GENIS.6 SA.1_OC" kind="DISCONNECTOR" retained="false" open="true" node1="0" node2="47"/>
                <iidm:switch id="GEN.PP6_GEN.P6ARLOD.1 SA.2_OC" name="GEN.P6ARLOD.1 SA.2_OC" kind="DISCONNECTOR" retained="false" open="true" node1="3" node2="45"/>
                <iidm:switch id="GEN.PP6_GEN.P6GENIS.4 SA.1_OC" name="GEN.P6GENIS.4 SA.1_OC" kind="DISCONNECTOR" retained="false" open="true" node1="1" node2="31"/>
                <iidm:switch id="GEN.PP6_GEN.P6.VERB.1 SA.1_OC" name="GEN.P6.VERB.1 SA.1_OC" kind="DISCONNECTOR" retained="false" open="true" node1="0" node2="46"/>
                <iidm:switch id="GEN.PP6_GEN.P6.VERB.2 SA.1_OC" name="GEN.P6.VERB.2 SA.1_OC" kind="DISCONNECTOR" retained="false" open="true" node1="1" node2="40"/>
                <iidm:switch id="GEN.PP6_GEN.P6SERRI.1 SA.2_OC" name="GEN.P6SERRI.1 SA.2_OC" kind="DISCONNECTOR" retained="false" open="true" node1="3" node2="49"/>
                <iidm:switch id="GEN.PP6_GEN.P6GENIS.2 SA.2_OC" name="GEN.P6GENIS.2 SA.2_OC" kind="DISCONNECTOR" retained="false" open="true" node1="2" node2="25"/>
                <iidm:switch id="GEN.PP6_GEN.P6BOISS.1 SA.1_OC" name="GEN.P6BOISS.1 SA.1_OC" kind="DISCONNECTOR" retained="false" open="false" node1="1" node2="42"/>
                <iidm:switch id="GEN.PP6_GEN.P6SERRI.1 SA.1_OC" name="GEN.P6SERRI.1 SA.1_OC" kind="DISCONNECTOR" retained="false" open="false" node1="1" node2="49"/>
                <iidm:switch id="GEN.PP6_GEN.P6AT761 DJ_OC" name="GEN.P6AT761 DJ_OC" kind="BREAKER" retained="true" open="false" node1="26" node2="5"/>
                <iidm:switch id="GEN.PP6_GEN.P6GENIS.5 DJ.HT_OC" name="GEN.P6GENIS.5 DJ.HT_OC" kind="BREAKER" retained="true" open="false" node1="29" node2="11"/>
                <iidm:switch id="GEN.PP6_GEN.P6AT762 DJ_OC" name="GEN.P6AT762 DJ_OC" kind="BREAKER" retained="true" open="true" node1="35" node2="4"/>
                <iidm:switch id="GEN.PP6_GEN.P6.VERB.2 DJ_OC" name="GEN.P6.VERB.2 DJ_OC" kind="BREAKER" retained="true" open="false" node1="40" node2="18"/>
                <iidm:switch id="GEN.PP6_GEN.P6GENIS.1 DJ.HT_OC" name="GEN.P6GENIS.1 DJ.HT_OC" kind="BREAKER" retained="true" open="false" node1="28" node2="14"/>
                <iidm:switch id="GEN.PP6_GEN.P6COUPL.B DJ_OC" name="GEN.P6COUPL.B DJ_OC" kind="BREAKER" retained="true" open="false" node1="37" node2="41"/>
                <iidm:switch id="GEN.PP6_GEN.P6ZCRUS.1 DJ_OC" name="GEN.P6ZCRUS.1 DJ_OC" kind="BREAKER" retained="true" open="false" node1="30" node2="17"/>
                <iidm:switch id="GEN.PP6_GEN.P6BOISS.1 DJ_OC" name="GEN.P6BOISS.1 DJ_OC" kind="BREAKER" retained="true" open="false" node1="42" node2="9"/>
                <iidm:switch id="GEN.PP6_GEN.P6CORNI.2 DJ_OC" name="GEN.P6CORNI.2 DJ_OC" kind="BREAKER" retained="true" open="false" node1="36" node2="19"/>
                <iidm:switch id="GEN.PP6_GEN.P6IZERN.1 DJ_OC" name="GEN.P6IZERN.1 DJ_OC" kind="BREAKER" retained="true" open="false" node1="39" node2="10"/>
                <iidm:switch id="GEN.PP6_GEN.P6CPNOL.1 DJ_OC" name="GEN.P6CPNOL.1 DJ_OC" kind="BREAKER" retained="true" open="true" node1="44" node2="21"/>
                <iidm:switch id="GEN.PP6_GEN.P6SERRI.1 DJ_OC" name="GEN.P6SERRI.1 DJ_OC" kind="BREAKER" retained="true" open="false" node1="49" node2="8"/>
                <iidm:switch id="GEN.PP6_GEN.P6GENIS.3 DJ.HT_OC" name="GEN.P6GENIS.3 DJ.HT_OC" kind="BREAKER" retained="true" open="true" node1="33" node2="7"/>
                <iidm:switch id="GEN.PP6_GEN.P6GENIS.6 DJ.HT_OC" name="GEN.P6GENIS.6 DJ.HT_OC" kind="BREAKER" retained="true" open="false" node1="47" node2="6"/>
                <iidm:switch id="GEN.PP6_GEN.P6.VERB.1 DJ_OC" name="GEN.P6.VERB.1 DJ_OC" kind="BREAKER" retained="true" open="true" node1="46" node2="16"/>
                <iidm:switch id="GEN.PP6_GEN.P6TRO.1AB DJ_OC" name="GEN.P6TRO.1AB DJ_OC" kind="BREAKER" retained="true" open="false" node1="43" node2="38"/>
                <iidm:switch id="GEN.PP6_GEN.P6ARLOD.1 DJ_OC" name="GEN.P6ARLOD.1 DJ_OC" kind="BREAKER" retained="true" open="true" node1="45" node2="22"/>
                <iidm:switch id="GEN.PP6_GEN.P6VOUGL.1 DJ_OC" name="GEN.P6VOUGL.1 DJ_OC" kind="BREAKER" retained="true" open="false" node1="24" node2="20"/>
                <iidm:switch id="GEN.PP6_GEN.P6TRO.2AB DJ_OC" name="GEN.P6TRO.2AB DJ_OC" kind="BREAKER" retained="true" open="false" node1="48" node2="23"/>
                <iidm:switch id="GEN.PP6_GEN.P6COUPL.A DJ_OC" name="GEN.P6COUPL.A DJ_OC" kind="BREAKER" retained="true" open="false" node1="34" node2="32"/>
                <iidm:switch id="GEN.PP6_GEN.P6GENIS.4 DJ.HT_OC" name="GEN.P6GENIS.4 DJ.HT_OC" kind="BREAKER" retained="true" open="true" node1="31" node2="15"/>
                <iidm:switch id="GEN.PP6_GEN.P6GENIS.2 DJ.HT_OC" name="GEN.P6GENIS.2 DJ.HT_OC" kind="BREAKER" retained="true" open="true" node1="25" node2="12"/>
                <iidm:switch id="GEN.PP6_GEN.P6CHAV6.1 DJ_OC" name="GEN.P6CHAV6.1 DJ_OC" kind="BREAKER" retained="true" open="false" node1="27" node2="13"/>
            </iidm:nodeBreakerTopology>
            <iidm:load id="GEN.PL61SERRI" loadType="FICTITIOUS" p0="43.23142238807827" q0="13.521728091123805" node="8" p="43.23142238807827" q="13.521728091123805"/>
            <iidm:load id="CHAV6L61GEN.P" loadType="FICTITIOUS" p0="86.72108201856634" q0="-3.3255232643955424" node="13" p="86.72108201856634" q="-3.3255232643955424"/>
            <iidm:load id=".VERBL61GEN.P" loadType="FICTITIOUS" p0="0.0" q0="0.0" node="16"/>
            <iidm:load id="GEN.PL61ZCRUS" loadType="FICTITIOUS" p0="-26.015327987887872" q0="-5.060042605376111" node="17" p="-26.015327987887872" q="-5.060042605376111"/>
            <iidm:load id=".VERBL62GEN.P" loadType="FICTITIOUS" p0="-31.27401135928278" q0="-46.802897825295986" node="18" p="-31.27401135928278" q="-46.802897825295986"/>
            <iidm:load id="CORNIL62GEN.P" loadType="FICTITIOUS" p0="-28.188193507715482" q0="-3.489555244528219" node="19" p="-28.188193507715482" q="-3.489555244528219"/>
            <iidm:load id="CPNOLL61GEN.P" loadType="FICTITIOUS" p0="0.0" q0="0.0" node="21"/>
            <iidm:load id="ARLODL61GEN.P" loadType="FICTITIOUS" p0="0.0" q0="0.0" node="22"/>
        </iidm:voltageLevel>
        <iidm:voltageLevel id="GEN.PP7" nominalV="400.0" lowVoltageLimit="390.0" highVoltageLimit="420.0" topologyKind="NODE_BREAKER">
            <iidm:property name="codeOI" value="GEN.P-P71"/>
            <iidm:nodeBreakerTopology nodeCount="28">
                <iidm:busbarSection id="GEN.PP7_1.1" name="1.1" node="0" v="410.4539577405671" angle="-1.968835581276028"/>
                <iidm:busbarSection id="GEN.PP7_1.2" name="1.2" node="1" v="410.4539577405671" angle="-1.968835581276028"/>
                <iidm:busbarSection id="GEN.PP7_2.1" name="2.1" node="2" v="410.4539577405671" angle="-1.968835581276028"/>
                <iidm:busbarSection id="GEN.PP7_2.2" name="2.2" node="3"/>
                <iidm:switch id="GEN.PP7_GEN.P7AT762 SA.2_OC" name="GEN.P7AT762 SA.2_OC" kind="DISCONNECTOR" retained="false" open="true" node1="3" node2="14"/>
                <iidm:switch id="GEN.PP7_GEN.P7VIELM.1 SA.1_OC" name="GEN.P7VIELM.1 SA.1_OC" kind="DISCONNECTOR" retained="false" open="false" node1="1" node2="15"/>
                <iidm:switch id="GEN.PP7_GEN.P7SEC..12 SS.1.12_OC" name="GEN.P7SEC..12 SS.1.12_OC" kind="DISCONNECTOR" retained="false" open="false" node1="1" node2="0"/>
                <iidm:switch id="GEN.PP7_GEN.P7VIELM.2 SA.1_OC" name="GEN.P7VIELM.2 SA.1_OC" kind="DISCONNECTOR" retained="false" open="true" node1="0" node2="16"/>
                <iidm:switch id="GEN.PP7_GEN.P7COUPL.2 SA.1_OC" name="GEN.P7COUPL.2 SA.1_OC" kind="DISCONNECTOR" retained="false" open="true" node1="17" node2="1"/>
                <iidm:switch id="GEN.PP7_GEN.P7VIELM.3 SA.1_OC" name="GEN.P7VIELM.3 SA.1_OC" kind="DISCONNECTOR" retained="false" open="true" node1="1" node2="18"/>
                <iidm:switch id="GEN.PP7_GEN.P7CORNI.1 SA.2_OC" name="GEN.P7CORNI.1 SA.2_OC" kind="DISCONNECTOR" retained="false" open="true" node1="3" node2="19"/>
                <iidm:switch id="GEN.PP7_GEN.P7COUPL.1 SA.2_OC" name="GEN.P7COUPL.1 SA.2_OC" kind="DISCONNECTOR" retained="false" open="false" node1="2" node2="20"/>
                <iidm:switch id="GEN.PP7_GEN.P7CREYS.2 SA.2_OC" name="GEN.P7CREYS.2 SA.2_OC" kind="DISCONNECTOR" retained="false" open="true" node1="3" node2="21"/>
                <iidm:switch id="GEN.PP7_GEN.P7AT762 SA.1_OC" name="GEN.P7AT762 SA.1_OC" kind="DISCONNECTOR" retained="false" open="false" node1="1" node2="14"/>
                <iidm:switch id="GEN.PP7_GEN.P7B.TOL.1 SA.2_OC" name="GEN.P7B.TOL.1 SA.2_OC" kind="DISCONNECTOR" retained="false" open="true" node1="2" node2="22"/>
                <iidm:switch id="GEN.PP7_GEN.P7AT761 SA.1_OC" name="GEN.P7AT761 SA.1_OC" kind="DISCONNECTOR" retained="false" open="true" node1="0" node2="23"/>
                <iidm:switch id="GEN.PP7_GEN.P7FRASN.1 SA.2_OC" name="GEN.P7FRASN.1 SA.2_OC" kind="DISCONNECTOR" retained="false" open="false" node1="2" node2="24"/>
                <iidm:switch id="GEN.PP7_GEN.P7COUPL.1 SA.1_OC" name="GEN.P7COUPL.1 SA.1_OC" kind="DISCONNECTOR" retained="false" open="false" node1="25" node2="0"/>
                <iidm:switch id="GEN.PP7_GEN.P7AT761 SA.2_OC" name="GEN.P7AT761 SA.2_OC" kind="DISCONNECTOR" retained="false" open="false" node1="2" node2="23"/>
                <iidm:switch id="GEN.PP7_GEN.P7VIELM.1 SA.2_OC" name="GEN.P7VIELM.1 SA.2_OC" kind="DISCONNECTOR" retained="false" open="true" node1="3" node2="15"/>
                <iidm:switch id="GEN.PP7_GEN.P7CREYS.1 SA.2_OC" name="GEN.P7CREYS.1 SA.2_OC" kind="DISCONNECTOR" retained="false" open="false" node1="2" node2="26"/>
                <iidm:switch id="GEN.PP7_GEN.P7COUPL.2 SA.2_OC" name="GEN.P7COUPL.2 SA.2_OC" kind="DISCONNECTOR" retained="false" open="true" node1="3" node2="27"/>
                <iidm:switch id="GEN.PP7_GEN.P7B.TOL.1 SA.1_OC" name="GEN.P7B.TOL.1 SA.1_OC" kind="DISCONNECTOR" retained="false" open="false" node1="0" node2="22"/>
                <iidm:switch id="GEN.PP7_GEN.P7CREYS.2 SA.1_OC" name="GEN.P7CREYS.2 SA.1_OC" kind="DISCONNECTOR" retained="false" open="false" node1="1" node2="21"/>
                <iidm:switch id="GEN.PP7_GEN.P7CORNI.1 SA.1_OC" name="GEN.P7CORNI.1 SA.1_OC" kind="DISCONNECTOR" retained="false" open="false" node1="1" node2="19"/>
                <iidm:switch id="GEN.PP7_GEN.P7VIELM.2 SA.2_OC" name="GEN.P7VIELM.2 SA.2_OC" kind="DISCONNECTOR" retained="false" open="false" node1="2" node2="16"/>
                <iidm:switch id="GEN.PP7_GEN.P7VIELM.3 SA.2_OC" name="GEN.P7VIELM.3 SA.2_OC" kind="DISCONNECTOR" retained="false" open="true" node1="3" node2="18"/>
                <iidm:switch id="GEN.PP7_GEN.P7CREYS.1 SA.1_OC" name="GEN.P7CREYS.1 SA.1_OC" kind="DISCONNECTOR" retained="false" open="true" node1="0" node2="26"/>
                <iidm:switch id="GEN.PP7_GEN.P7FRASN.1 SA.1_OC" name="GEN.P7FRASN.1 SA.1_OC" kind="DISCONNECTOR" retained="false" open="true" node1="0" node2="24"/>
                <iidm:switch id="GEN.PP7_GEN.P7SEC..12 SS.2.12_OC" name="GEN.P7SEC..12 SS.2.12_OC" kind="DISCONNECTOR" retained="false" open="true" node1="3" node2="2"/>
                <iidm:switch id="GEN.PP7_GEN.P7FRASN.1 DJ_OC" name="GEN.P7FRASN.1 DJ_OC" kind="BREAKER" retained="true" open="false" node1="24" node2="9"/>
                <iidm:switch id="GEN.PP7_GEN.P7VIELM.3 DJ_OC" name="GEN.P7VIELM.3 DJ_OC" kind="BREAKER" retained="true" open="true" node1="18" node2="7"/>
                <iidm:switch id="GEN.PP7_GEN.P7VIELM.1 DJ_OC" name="GEN.P7VIELM.1 DJ_OC" kind="BREAKER" retained="true" open="false" node1="15" node2="11"/>
                <iidm:switch id="GEN.PP7_GEN.P7B.TOL.1 DJ_OC" name="GEN.P7B.TOL.1 DJ_OC" kind="BREAKER" retained="true" open="false" node1="22" node2="13"/>
                <iidm:switch id="GEN.PP7_GEN.P7AT762 DJ_OC" name="GEN.P7AT762 DJ_OC" kind="BREAKER" retained="true" open="false" node1="14" node2="4"/>
                <iidm:switch id="GEN.PP7_GEN.P7COUPL.1 DJ_OC" name="GEN.P7COUPL.1 DJ_OC" kind="BREAKER" retained="true" open="false" node1="20" node2="25"/>
                <iidm:switch id="GEN.PP7_GEN.P7CORNI.1 DJ_OC" name="GEN.P7CORNI.1 DJ_OC" kind="BREAKER" retained="true" open="false" node1="19" node2="6"/>
                <iidm:switch id="GEN.PP7_GEN.P7COUPL.2 DJ_OC" name="GEN.P7COUPL.2 DJ_OC" kind="BREAKER" retained="true" open="true" node1="27" node2="17"/>
                <iidm:switch id="GEN.PP7_GEN.P7CREYS.2 DJ_OC" name="GEN.P7CREYS.2 DJ_OC" kind="BREAKER" retained="true" open="false" node1="21" node2="8"/>
                <iidm:switch id="GEN.PP7_GEN.P7AT761 DJ_OC" name="GEN.P7AT761 DJ_OC" kind="BREAKER" retained="true" open="false" node1="23" node2="5"/>
                <iidm:switch id="GEN.PP7_GEN.P7VIELM.2 DJ_OC" name="GEN.P7VIELM.2 DJ_OC" kind="BREAKER" retained="true" open="false" node1="16" node2="10"/>
                <iidm:switch id="GEN.PP7_GEN.P7CREYS.1 DJ_OC" name="GEN.P7CREYS.1 DJ_OC" kind="BREAKER" retained="true" open="false" node1="26" node2="12"/>
            </iidm:nodeBreakerTopology>
            <iidm:load id="CORNIL71GEN.P" loadType="FICTITIOUS" p0="171.01330697660046" q0="-6.791131035679427" node="6" p="171.01330697660046" q="-6.791131035679427"/>
            <iidm:load id="FRASNL71GEN.P" loadType="FICTITIOUS" p0="542.3625540965152" q0="-56.342449457296425" node="9" p="542.3625540965152" q="-56.342449457296425"/>
            <iidm:load id="B.TOLL71GEN.P" loadType="FICTITIOUS" p0="13.48663788493991" q0="-40.51894462745804" node="13" p="13.48663788493991" q="-40.51894462745804"/>
        </iidm:voltageLevel>
        <iidm:twoWindingsTransformer id="GEN.PY771" r="0.030012620612978935" x="42.300045013427734" g="9.744659337229677E-7" b="-7.541967534052674E-6" ratedU1="388.0" ratedU2="388.0" voltageLevelId1="GEN.PP7" node1="5" voltageLevelId2="1GEN.P7" node2="1" p1="184.48292737001535" q1="24.511713636474724" p2="-184.31340821104257" q2="-14.566599665849935">
            <iidm:property name="activeLimitId1" value="E1 PROT TR"/>
            <iidm:property name="STUDY_activeLimitId1" value="E1 PROT"/>
            <iidm:property name="STUDY_PROTECTION" value="E1 PROT, E1 PROT TLIM, H1 PROT, H1 PROT TLIM, H2 PROT, H2 PROT TLIM"/>
            <iidm:property name="TR_PROTECTION" value="E1 PROT TR"/>
            <iidm:property name="codeOI" value="GEN.P-Y761.1"/>
            <iidm:ratioTapChanger lowTapPosition="0" tapPosition="0" loadTapChangingCapabilities="false">
                <iidm:terminalRef id="GEN.PY771" side="TWO"/>
                <iidm:step r="0.0" x="0.0" g="0.0" b="0.0" rho="1.0"/>
            </iidm:ratioTapChanger>
            <iidm:currentLimits1 permanentLimit="9999.0"/>
        </iidm:twoWindingsTransformer>
        <iidm:twoWindingsTransformer id="GEN.PY761" r="0.17217104136943817" x="-2.5252437591552734" g="0.0" b="0.0" ratedU1="388.0" ratedU2="240.0" voltageLevelId1="1GEN.P7" node1="2" voltageLevelId2="GEN.PP6" node2="5" p1="184.31340821104345" q1="14.56659966584266" p2="-184.21270735966436" q2="-16.043585608756985">
            <iidm:property name="STUDY_IT" value="E1 J, E1 J TLIM, H1 J, H1 J TLIM, H2 J, H2 J TLIM"/>
            <iidm:property name="activeLimitId1" value="E1 J TR"/>
            <iidm:property name="STUDY_activeLimitId1" value="E1 J"/>
            <iidm:property name="STUDY_PROTECTION" value="E1 PROT, H1 PROT, H2 PROT"/>
            <iidm:property name="TR_IT" value="E1 J TR"/>
            <iidm:property name="codeOI" value="GEN.P-Y761.2"/>
            <iidm:ratioTapChanger lowTapPosition="0" tapPosition="0" loadTapChangingCapabilities="false">
                <iidm:terminalRef id="GEN.PY761" side="TWO"/>
                <iidm:step r="0.0" x="0.0" g="0.0" b="0.0" rho="0.9569377899169922"/>
                <iidm:step r="0.0" x="0.0" g="0.0" b="0.0" rho="1.0"/>
                <iidm:step r="0.0" x="0.0" g="0.0" b="0.0" rho="1.0427528619766235"/>
            </iidm:ratioTapChanger>
            <iidm:currentLimits2 permanentLimit="1659.0">
                <iidm:temporaryLimit name="IT20" acceptableDuration="1200" value="2164.0"/>
                <iidm:temporaryLimit name="IT5" acceptableDuration="300" value="2886.0"/>
                <iidm:temporaryLimit name="IT" acceptableDuration="1"/>
            </iidm:currentLimits2>
        </iidm:twoWindingsTransformer>
        <iidm:twoWindingsTransformer id="GEN.PY711" r="0.014148910529911518" x="0.36529311537742615" g="0.0" b="0.0" ratedU1="388.0" ratedU2="21.0" voltageLevelId1="1GEN.P7" node1="3" voltageLevelId2="GEN.PP1" node2="2" p1="1.4210854715202004E-14" q1="-4.547473508864641E-13" p2="-1.4210854715202004E-14" q2="-2.2737367544323206E-13">
            <iidm:property name="codeOI" value="GEN.P-Y761.3"/>
            <iidm:ratioTapChanger lowTapPosition="0" tapPosition="0" loadTapChangingCapabilities="false">
                <iidm:terminalRef id="GEN.PY711" side="TWO"/>
                <iidm:step r="0.0" x="0.0" g="0.0" b="0.0" rho="1.0"/>
            </iidm:ratioTapChanger>
        </iidm:twoWindingsTransformer>
        <iidm:twoWindingsTransformer id="GEN.PY762" r="0.16834880411624908" x="13.812317848205566" g="2.61805553236627E-6" b="-1.951390913745854E-5" ratedU1="388.0" ratedU2="240.0" voltageLevelId1="GEN.PP7" node1="4" voltageLevelId2="GEN.PP6" node2="4" p1="0.15451772224205856" q1="1.1517833259095638">
            <iidm:property name="STUDY_IT" value="E1 J, E1 J TLIM, H1 J, H1 J TLIM, H2 J, H2 J TLIM"/>
            <iidm:property name="activeLimitId2" value="E1 PROT TR"/>
            <iidm:property name="STUDY_PROTECTION" value="E1 PROT, E1 PROT TLIM, H1 PROT, H1 PROT TLIM, H2 PROT, H2 PROT TLIM"/>
            <iidm:property name="STUDY_activeLimitId2" value="E1 PROT"/>
            <iidm:property name="TR_PROTECTION" value="E1 PROT TR"/>
            <iidm:property name="codeOI" value="GEN.P-Y762"/>
            <iidm:ratioTapChanger lowTapPosition="0" tapPosition="0" loadTapChangingCapabilities="false">
                <iidm:terminalRef id="GEN.PY762" side="TWO"/>
                <iidm:step r="0.0" x="0.0" g="0.0" b="0.0" rho="0.9569377899169922"/>
                <iidm:step r="0.0" x="0.0" g="0.0" b="0.0" rho="1.0"/>
                <iidm:step r="0.0" x="0.0" g="0.0" b="0.0" rho="1.0427528619766235"/>
            </iidm:ratioTapChanger>
            <iidm:currentLimits2 permanentLimit="1540.0">
                <iidm:temporaryLimit name="SUR20" acceptableDuration="1200" value="2164.0"/>
                <iidm:temporaryLimit name="SUR5" acceptableDuration="300" value="2886.0"/>
                <iidm:temporaryLimit name="SUR1" acceptableDuration="60" value="2886.0"/>
                <iidm:temporaryLimit name="SUR3s" acceptableDuration="3"/>
            </iidm:currentLimits2>
        </iidm:twoWindingsTransformer>
    </iidm:substation>
    <iidm:substation id="GROSN" country="FR" tso="RTE">
        <iidm:property name="paysCvg" value="FRANCE"/>
        <iidm:property name="regionCvg" value="NANCY"/>
        <iidm:voltageLevel id="1GROSP7" nominalV="400.0" lowVoltageLimit="280.0" highVoltageLimit="520.0" topologyKind="NODE_BREAKER">
            <iidm:property name="codeOI" value="1GROS-P71"/>
            <iidm:nodeBreakerTopology nodeCount="4">
                <iidm:busbarSection id="1GROSP7_1" name="1" node="0" v="410.5799611158219" angle="-1.118356629002199"/>
                <iidm:switch id="1GROSP7_1GROSP7-1GROSP7.SJB.0-GROSNAT761E1SA_F" name="1GROSP7-1GROSP7.SJB.0-GROSNAT761E1SA_F" kind="DISCONNECTOR" retained="false" open="false" fictitious="true" node1="0" node2="1"/>
                <iidm:switch id="1GROSP7_1GROSP7-1GROSP7.SJB.0-GROSNAT761E2SA_F" name="1GROSP7-1GROSP7.SJB.0-GROSNAT761E2SA_F" kind="DISCONNECTOR" retained="false" open="false" fictitious="true" node1="0" node2="2"/>
                <iidm:switch id="1GROSP7_1GROSP7-1GROSP7.SJB.0-GROSNAT761E3SA_F" name="1GROSP7-1GROSP7.SJB.0-GROSNAT761E3SA_F" kind="DISCONNECTOR" retained="false" open="false" fictitious="true" node1="0" node2="3"/>
            </iidm:nodeBreakerTopology>
        </iidm:voltageLevel>
        <iidm:voltageLevel id="GROSNP1" nominalV="20.0" lowVoltageLimit="16.0" highVoltageLimit="24.0" topologyKind="NODE_BREAKER">
            <iidm:property name="codeOI" value="GROSN-P11"/>
            <iidm:nodeBreakerTopology nodeCount="3">
                <iidm:busbarSection id="GROSNP1_1" name="1" node="0" v="21.140040879260887" angle="-1.0620490639291194"/>
                <iidm:switch id="GROSNP1_GROSN1REAC.1 DJ.MCOMP_OC" name="GROSN1REAC.1 DJ.MCOMP_OC" kind="BREAKER" retained="true" open="false" node1="0" node2="1"/>
                <iidm:switch id="GROSNP1_GROSNP1-GROSNP1.BTS.1-GROSNAT761E3SA_F" name="GROSNP1-GROSNP1.BTS.1-GROSNAT761E3SA_F" kind="DISCONNECTOR" retained="false" open="false" fictitious="true" node1="0" node2="2"/>
            </iidm:nodeBreakerTopology>
            <iidm:shunt id="GROSN1REAC.1" bPerSection="-0.14512500166893005" maximumSectionCount="1" currentSectionCount="1" node="1" q="64.8565522806496">
                <iidm:property name="qMax" value="-58.05"/>
                <iidm:property name="codeOI" value="GROSN-MC311"/>
            </iidm:shunt>
        </iidm:voltageLevel>
        <iidm:voltageLevel id="GROSNP6" nominalV="225.0" lowVoltageLimit="220.0" highVoltageLimit="245.00001525878906" topologyKind="NODE_BREAKER">
            <iidm:property name="codeOI" value="GROSN-P61"/>
            <iidm:nodeBreakerTopology nodeCount="20">
                <iidm:busbarSection id="GROSNP6_1" name="1" node="0" v="242.00103941034604" angle="-0.7865968730880268"/>
                <iidm:busbarSection id="GROSNP6_2" name="2" node="1" v="242.00103941034604" angle="-0.7865968730880268"/>
                <iidm:switch id="GROSNP6_GROSN6AT762 SA.2_OC" name="GROSN6AT762 SA.2_OC" kind="DISCONNECTOR" retained="false" open="false" node1="1" node2="10"/>
                <iidm:switch id="GROSNP6_GROSN6CURTI.1 SA.1_OC" name="GROSN6CURTI.1 SA.1_OC" kind="DISCONNECTOR" retained="false" open="true" node1="0" node2="11"/>
                <iidm:switch id="GROSNP6_GROSN6COUPL SA.2_OC" name="GROSN6COUPL SA.2_OC" kind="DISCONNECTOR" retained="false" open="false" node1="1" node2="12"/>
                <iidm:switch id="GROSNP6_GROSN6COUPL SA.1_OC" name="GROSN6COUPL SA.1_OC" kind="DISCONNECTOR" retained="false" open="false" node1="13" node2="0"/>
                <iidm:switch id="GROSNP6_GROSN6AT762 SA.1_OC" name="GROSN6AT762 SA.1_OC" kind="DISCONNECTOR" retained="false" open="true" node1="0" node2="10"/>
                <iidm:switch id="GROSNP6_GROSN6CURTI.1 SA.2_OC" name="GROSN6CURTI.1 SA.2_OC" kind="DISCONNECTOR" retained="false" open="false" node1="1" node2="11"/>
                <iidm:switch id="GROSNP6_GROSN6CHALO.2 SA.1_OC" name="GROSN6CHALO.2 SA.1_OC" kind="DISCONNECTOR" retained="false" open="true" node1="0" node2="14"/>
                <iidm:switch id="GROSNP6_GROSN6GUEUG.1 SA.2_OC" name="GROSN6GUEUG.1 SA.2_OC" kind="DISCONNECTOR" retained="false" open="false" node1="1" node2="15"/>
                <iidm:switch id="GROSNP6_GROSN6CHALO.1 SA.1_OC" name="GROSN6CHALO.1 SA.1_OC" kind="DISCONNECTOR" retained="false" open="false" node1="0" node2="16"/>
                <iidm:switch id="GROSNP6_GROSN6MACON.1 SA.2_OC" name="GROSN6MACON.1 SA.2_OC" kind="DISCONNECTOR" retained="false" open="true" node1="1" node2="17"/>
                <iidm:switch id="GROSNP6_GROSN6GUEUG.1 SA.1_OC" name="GROSN6GUEUG.1 SA.1_OC" kind="DISCONNECTOR" retained="false" open="true" node1="0" node2="15"/>
                <iidm:switch id="GROSNP6_GROSN6ZCUR5.1 SA.2_OC" name="GROSN6ZCUR5.1 SA.2_OC" kind="DISCONNECTOR" retained="false" open="true" node1="1" node2="18"/>
                <iidm:switch id="GROSNP6_GROSN6CHALO.2 SA.2_OC" name="GROSN6CHALO.2 SA.2_OC" kind="DISCONNECTOR" retained="false" open="false" node1="1" node2="14"/>
                <iidm:switch id="GROSNP6_GROSN6ZCUR5.1 SA.1_OC" name="GROSN6ZCUR5.1 SA.1_OC" kind="DISCONNECTOR" retained="false" open="false" node1="0" node2="18"/>
                <iidm:switch id="GROSNP6_GROSN6AT761 SA.2_OC" name="GROSN6AT761 SA.2_OC" kind="DISCONNECTOR" retained="false" open="true" node1="1" node2="19"/>
                <iidm:switch id="GROSNP6_GROSN6MACON.1 SA.1_OC" name="GROSN6MACON.1 SA.1_OC" kind="DISCONNECTOR" retained="false" open="false" node1="0" node2="17"/>
                <iidm:switch id="GROSNP6_GROSN6AT761 SA.1_OC" name="GROSN6AT761 SA.1_OC" kind="DISCONNECTOR" retained="false" open="false" node1="0" node2="19"/>
                <iidm:switch id="GROSNP6_GROSN6CHALO.1 SA.2_OC" name="GROSN6CHALO.1 SA.2_OC" kind="DISCONNECTOR" retained="false" open="true" node1="1" node2="16"/>
                <iidm:switch id="GROSNP6_GROSN6AT761 DJ_OC" name="GROSN6AT761 DJ_OC" kind="BREAKER" retained="true" open="false" node1="19" node2="3"/>
                <iidm:switch id="GROSNP6_GROSN6AT762 DJ_OC" name="GROSN6AT762 DJ_OC" kind="BREAKER" retained="true" open="false" node1="10" node2="2"/>
                <iidm:switch id="GROSNP6_GROSN6GUEUG.1 DJ_OC" name="GROSN6GUEUG.1 DJ_OC" kind="BREAKER" retained="true" open="false" node1="15" node2="7"/>
                <iidm:switch id="GROSNP6_GROSN6CHALO.2 DJ_OC" name="GROSN6CHALO.2 DJ_OC" kind="BREAKER" retained="true" open="false" node1="14" node2="5"/>
                <iidm:switch id="GROSNP6_GROSN6CURTI.1 DJ_OC" name="GROSN6CURTI.1 DJ_OC" kind="BREAKER" retained="true" open="false" node1="11" node2="4"/>
                <iidm:switch id="GROSNP6_GROSN6MACON.1 DJ_OC" name="GROSN6MACON.1 DJ_OC" kind="BREAKER" retained="true" open="false" node1="17" node2="9"/>
                <iidm:switch id="GROSNP6_GROSN6COUPL DJ_OC" name="GROSN6COUPL DJ_OC" kind="BREAKER" retained="true" open="false" node1="12" node2="13"/>
                <iidm:switch id="GROSNP6_GROSN6CHALO.1 DJ_OC" name="GROSN6CHALO.1 DJ_OC" kind="BREAKER" retained="true" open="false" node1="16" node2="8"/>
                <iidm:switch id="GROSNP6_GROSN6ZCUR5.1 DJ_OC" name="GROSN6ZCUR5.1 DJ_OC" kind="BREAKER" retained="true" open="false" node1="18" node2="6"/>
            </iidm:nodeBreakerTopology>
        </iidm:voltageLevel>
        <iidm:voltageLevel id="GROSNP7" nominalV="400.0" lowVoltageLimit="390.0" highVoltageLimit="420.0" topologyKind="NODE_BREAKER">
            <iidm:property name="codeOI" value="GROSN-P71"/>
            <iidm:nodeBreakerTopology nodeCount="12">
                <iidm:busbarSection id="GROSNP7_1" name="1" node="0" v="410.4637882204213" angle="0.4408246596083607"/>
                <iidm:busbarSection id="GROSNP7_2" name="2" node="1" v="410.4637882204213" angle="0.4408246596083607"/>
                <iidm:switch id="GROSNP7_GROSN7VIELM.1 SA.1_OC" name="GROSN7VIELM.1 SA.1_OC" kind="DISCONNECTOR" retained="false" open="false" node1="0" node2="6"/>
                <iidm:switch id="GROSNP7_GROSN7VIELM.1 SA.2_OC" name="GROSN7VIELM.1 SA.2_OC" kind="DISCONNECTOR" retained="false" open="true" node1="1" node2="6"/>
                <iidm:switch id="GROSNP7_GROSN7COUPL SA.1_OC" name="GROSN7COUPL SA.1_OC" kind="DISCONNECTOR" retained="false" open="false" node1="7" node2="0"/>
                <iidm:switch id="GROSNP7_GROSN7AT761 SA.2_OC" name="GROSN7AT761 SA.2_OC" kind="DISCONNECTOR" retained="false" open="true" node1="1" node2="8"/>
                <iidm:switch id="GROSNP7_GROSN7AT761 SA.1_OC" name="GROSN7AT761 SA.1_OC" kind="DISCONNECTOR" retained="false" open="false" node1="0" node2="8"/>
                <iidm:switch id="GROSNP7_GROSN7COUPL SA.2_OC" name="GROSN7COUPL SA.2_OC" kind="DISCONNECTOR" retained="false" open="false" node1="1" node2="9"/>
                <iidm:switch id="GROSNP7_GROSN7SSV.O.1 SA.1_OC" name="GROSN7SSV.O.1 SA.1_OC" kind="DISCONNECTOR" retained="false" open="true" node1="0" node2="10"/>
                <iidm:switch id="GROSNP7_GROSN7AT762 SA.1_OC" name="GROSN7AT762 SA.1_OC" kind="DISCONNECTOR" retained="false" open="true" node1="0" node2="11"/>
                <iidm:switch id="GROSNP7_GROSN7AT762 SA.2_OC" name="GROSN7AT762 SA.2_OC" kind="DISCONNECTOR" retained="false" open="false" node1="1" node2="11"/>
                <iidm:switch id="GROSNP7_GROSN7SSV.O.1 SA.2_OC" name="GROSN7SSV.O.1 SA.2_OC" kind="DISCONNECTOR" retained="false" open="false" node1="1" node2="10"/>
                <iidm:switch id="GROSNP7_GROSN7COUPL DJ_OC" name="GROSN7COUPL DJ_OC" kind="BREAKER" retained="true" open="false" node1="9" node2="7"/>
                <iidm:switch id="GROSNP7_GROSN7VIELM.1 DJ_OC" name="GROSN7VIELM.1 DJ_OC" kind="BREAKER" retained="true" open="false" node1="6" node2="4"/>
                <iidm:switch id="GROSNP7_GROSN7SSV.O.1 DJ_OC" name="GROSN7SSV.O.1 DJ_OC" kind="BREAKER" retained="true" open="false" node1="10" node2="5"/>
                <iidm:switch id="GROSNP7_GROSN7AT761 DJ_OC" name="GROSN7AT761 DJ_OC" kind="BREAKER" retained="true" open="false" node1="8" node2="3"/>
                <iidm:switch id="GROSNP7_GROSN7AT762 DJ_OC" name="GROSN7AT762 DJ_OC" kind="BREAKER" retained="true" open="false" node1="11" node2="2"/>
            </iidm:nodeBreakerTopology>
        </iidm:voltageLevel>
        <iidm:twoWindingsTransformer id="GROSNY771" r="0.2299998700618744" x="44.999996185302734" g="6.244021619750129E-7" b="-1.2933109019286348E-6" ratedU1="388.0" ratedU2="388.0" voltageLevelId1="GROSNP7" node1="3" voltageLevelId2="1GROSP7" node2="1" p1="101.95309144012253" q1="-0.08493691326566477" p2="-101.83368676737511" q2="3.0763243596702523">
            <iidm:property name="activeLimitId1" value="E1 PROT TR"/>
            <iidm:property name="STUDY_activeLimitId1" value="E1 PROT"/>
            <iidm:property name="STUDY_PROTECTION" value="E1 PROT, E1 PROT TLIM, H1 PROT, H1 PROT TLIM, H2 PROT, H2 PROT TLIM"/>
            <iidm:property name="TR_PROTECTION" value="E1 PROT TR"/>
            <iidm:property name="codeOI" value="GROSN-Y761.1"/>
            <iidm:ratioTapChanger lowTapPosition="0" tapPosition="0" loadTapChangingCapabilities="false">
                <iidm:terminalRef id="GROSNY771" side="TWO"/>
                <iidm:step r="0.0" x="0.0" g="0.0" b="0.0" rho="1.0"/>
            </iidm:ratioTapChanger>
            <iidm:currentLimits1 permanentLimit="9999.0"/>
        </iidm:twoWindingsTransformer>
        <iidm:twoWindingsTransformer id="GROSNY761" r="0.08417501300573349" x="-3.4052844047546387" g="0.0" b="0.0" ratedU1="388.0" ratedU2="240.0" voltageLevelId1="1GROSP7" node1="2" voltageLevelId2="GROSNP6" node2="3" p1="101.76668637582213" q1="-71.25257067529674" p2="-101.7446914482648" q2="70.36277002319548">
            <iidm:property name="STUDY_IT" value="E1 J, E1 J TLIM, H1 J, H1 J TLIM, H2 J, H2 J TLIM"/>
            <iidm:property name="activeLimitId1" value="E1 J TR"/>
            <iidm:property name="STUDY_activeLimitId1" value="E1 J"/>
            <iidm:property name="STUDY_PROTECTION" value="E1 PROT, H1 PROT, H2 PROT"/>
            <iidm:property name="TR_IT" value="E1 J TR"/>
            <iidm:property name="codeOI" value="GROSN-Y761.2"/>
            <iidm:ratioTapChanger lowTapPosition="0" tapPosition="0" loadTapChangingCapabilities="false">
                <iidm:terminalRef id="GROSNY761" side="TWO"/>
                <iidm:step r="0.0" x="0.0" g="0.0" b="0.0" rho="0.9569377899169922"/>
                <iidm:step r="0.0" x="0.0" g="0.0" b="0.0" rho="1.0"/>
                <iidm:step r="0.0" x="0.0" g="0.0" b="0.0" rho="1.0427528619766235"/>
            </iidm:ratioTapChanger>
            <iidm:currentLimits2 permanentLimit="1659.0">
                <iidm:temporaryLimit name="IT20" acceptableDuration="1200" value="2164.0"/>
                <iidm:temporaryLimit name="IT5" acceptableDuration="300" value="2886.0"/>
                <iidm:temporaryLimit name="IT" acceptableDuration="1"/>
            </iidm:currentLimits2>
        </iidm:twoWindingsTransformer>
        <iidm:twoWindingsTransformer id="GROSNY711" r="0.007118383422493935" x="0.3526972830295563" g="0.0" b="0.0" ratedU1="388.0" ratedU2="21.0" voltageLevelId1="1GROSP7" node1="3" voltageLevelId2="GROSNP1" node2="2" p1="0.06700039155298043" q1="68.1762463156324" p2="-3.552713678800501E-15" q2="-64.85655228064957">
            <iidm:property name="codeOI" value="GROSN-Y761.3"/>
            <iidm:ratioTapChanger lowTapPosition="0" tapPosition="0" loadTapChangingCapabilities="false">
                <iidm:terminalRef id="GROSNY711" side="TWO"/>
                <iidm:step r="0.0" x="0.0" g="0.0" b="0.0" rho="1.0"/>
            </iidm:ratioTapChanger>
        </iidm:twoWindingsTransformer>
        <iidm:twoWindingsTransformer id="GROSNY762" r="0.17217601835727692" x="13.73575210571289" g="1.7638889175941586E-6" b="-4.772566626343178E-6" ratedU1="388.0" ratedU2="240.0" voltageLevelId1="GROSNP7" node1="2" voltageLevelId2="GROSNP6" node2="2" p1="91.95692803303598" q1="16.966205091309348" p2="-91.82775392177948" q2="-14.654307092452655">
            <iidm:property name="STUDY_IT" value="E1 J, E1 J TLIM, H1 J, H1 J TLIM, H2 J, H2 J TLIM"/>
            <iidm:property name="activeLimitId2" value="E1 PROT TR"/>
            <iidm:property name="STUDY_PROTECTION" value="E1 PROT, E1 PROT TLIM, H1 PROT, H1 PROT TLIM, H2 PROT, H2 PROT TLIM"/>
            <iidm:property name="STUDY_activeLimitId2" value="E1 PROT"/>
            <iidm:property name="TR_PROTECTION" value="E1 PROT TR"/>
            <iidm:property name="codeOI" value="GROSN-Y762"/>
            <iidm:ratioTapChanger lowTapPosition="0" tapPosition="0" loadTapChangingCapabilities="false">
                <iidm:terminalRef id="GROSNY762" side="TWO"/>
                <iidm:step r="0.0" x="0.0" g="0.0" b="0.0" rho="0.9569377899169922"/>
                <iidm:step r="0.0" x="0.0" g="0.0" b="0.0" rho="1.0"/>
                <iidm:step r="0.0" x="0.0" g="0.0" b="0.0" rho="1.0427528619766235"/>
            </iidm:ratioTapChanger>
            <iidm:currentLimits2 permanentLimit="1659.0">
                <iidm:temporaryLimit name="SUR20" acceptableDuration="1200" value="2164.0"/>
                <iidm:temporaryLimit name="SUR5" acceptableDuration="300" value="2886.0"/>
                <iidm:temporaryLimit name="SUR1" acceptableDuration="60" value="2886.0"/>
                <iidm:temporaryLimit name="SUR3s" acceptableDuration="3"/>
            </iidm:currentLimits2>
        </iidm:twoWindingsTransformer>
    </iidm:substation>
    <iidm:substation id="VIELM" country="FR" tso="RTE">
        <iidm:property name="paysCvg" value="FRANCE"/>
        <iidm:property name="regionCvg" value="NANCY"/>
        <iidm:voltageLevel id="1VIELP7" nominalV="400.0" lowVoltageLimit="280.0" highVoltageLimit="520.0" topologyKind="NODE_BREAKER">
            <iidm:property name="codeOI" value="1VIEL-P71"/>
            <iidm:nodeBreakerTopology nodeCount="4">
                <iidm:busbarSection id="1VIELP7_1" name="1" node="0" v="412.87872832426547" angle="0.2590224947745452"/>
                <iidm:switch id="1VIELP7_1VIELP7-1VIELP7.SJB.0-VIELMAT761E1SA_F" name="1VIELP7-1VIELP7.SJB.0-VIELMAT761E1SA_F" kind="DISCONNECTOR" retained="false" open="false" fictitious="true" node1="0" node2="1"/>
                <iidm:switch id="1VIELP7_1VIELP7-1VIELP7.SJB.0-VIELMAT761E2SA_F" name="1VIELP7-1VIELP7.SJB.0-VIELMAT761E2SA_F" kind="DISCONNECTOR" retained="false" open="false" fictitious="true" node1="0" node2="2"/>
                <iidm:switch id="1VIELP7_1VIELP7-1VIELP7.SJB.0-VIELMAT761E3SA_F" name="1VIELP7-1VIELP7.SJB.0-VIELMAT761E3SA_F" kind="DISCONNECTOR" retained="false" open="false" fictitious="true" node1="0" node2="3"/>
            </iidm:nodeBreakerTopology>
        </iidm:voltageLevel>
        <iidm:voltageLevel id="VIELMP1" nominalV="20.0" lowVoltageLimit="16.0" highVoltageLimit="24.0" topologyKind="NODE_BREAKER">
            <iidm:property name="codeOI" value="VIELM-P11"/>
            <iidm:nodeBreakerTopology nodeCount="3">
                <iidm:busbarSection id="VIELMP1_1" name="1" node="0" v="20.881700003731666" angle="0.376851527128366"/>
                <iidm:switch id="VIELMP1_VIELM1REAC.1 DJ.MCOMP_OC" name="VIELM1REAC.1 DJ.MCOMP_OC" kind="BREAKER" retained="true" open="false" node1="0" node2="1"/>
                <iidm:switch id="VIELMP1_VIELMP1-VIELMP1.BTS.1-VIELMAT761E3SA_F" name="VIELMP1-VIELMP1.BTS.1-VIELMAT761E3SA_F" kind="DISCONNECTOR" retained="false" open="false" fictitious="true" node1="0" node2="2"/>
            </iidm:nodeBreakerTopology>
            <iidm:shunt id="VIELM1REAC.1" bPerSection="-0.14512500166893005" maximumSectionCount="1" currentSectionCount="1" node="1" q="63.28108502886754">
                <iidm:property name="qMax" value="-58.05"/>
                <iidm:property name="codeOI" value="VIELM-MC311"/>
            </iidm:shunt>
        </iidm:voltageLevel>
        <iidm:voltageLevel id="VIELMP3" nominalV="63.0" lowVoltageLimit="59.0" highVoltageLimit="68.0" topologyKind="NODE_BREAKER">
            <iidm:property name="codeOI" value="VIELM-P31"/>
            <iidm:nodeBreakerTopology nodeCount="38">
                <iidm:busbarSection id="VIELMP3_1" name="1" node="0" v="65.14737757256037" angle="0.09463363984125164"/>
                <iidm:busbarSection id="VIELMP3_2" name="2" node="1" v="65.14737757256037" angle="0.09463363984125164"/>
                <iidm:switch id="VIELMP3_VIELM3VERRE.1 SA.1_OC" name="VIELM3VERRE.1 SA.1_OC" kind="DISCONNECTOR" retained="false" open="true" node1="0" node2="15"/>
                <iidm:switch id="VIELMP3_VIELM3ZPOIS.1 SA.2_OC" name="VIELM3ZPOIS.1 SA.2_OC" kind="DISCONNECTOR" retained="false" open="false" node1="1" node2="16"/>
                <iidm:switch id="VIELMP3_VIELM3SAULI.1 SA.2_OC" name="VIELM3SAULI.1 SA.2_OC" kind="DISCONNECTOR" retained="false" open="true" node1="1" node2="17"/>
                <iidm:switch id="VIELMP3_VIELM3ZPOIS.1 SA.1_OC" name="VIELM3ZPOIS.1 SA.1_OC" kind="DISCONNECTOR" retained="false" open="true" node1="0" node2="16"/>
                <iidm:switch id="VIELMP3_VIELM3VERRE.2 SA.2_OC" name="VIELM3VERRE.2 SA.2_OC" kind="DISCONNECTOR" retained="false" open="true" node1="1" node2="18"/>
                <iidm:switch id="VIELMP3_VIELM3TR634 SA.2_OC" name="VIELM3TR634 SA.2_OC" kind="DISCONNECTOR" retained="false" open="true" node1="1" node2="19"/>
                <iidm:switch id="VIELMP3_VIELM3B.ROC.1 SA.2_OC" name="VIELM3B.ROC.1 SA.2_OC" kind="DISCONNECTOR" retained="false" open="false" node1="1" node2="20"/>
                <iidm:switch id="VIELMP3_VIELM3TR313 SA.2_OC" name="VIELM3TR313 SA.2_OC" kind="DISCONNECTOR" retained="false" open="true" node1="1" node2="21"/>
                <iidm:switch id="VIELMP3_VIELM3VERRE.2 SA.1_OC" name="VIELM3VERRE.2 SA.1_OC" kind="DISCONNECTOR" retained="false" open="false" node1="0" node2="18"/>
                <iidm:switch id="VIELMP3_VIELM3COUPL SA.2_OC" name="VIELM3COUPL SA.2_OC" kind="DISCONNECTOR" retained="false" open="false" node1="1" node2="22"/>
                <iidm:switch id="VIELMP3_VIELM3TR313 SA.1_OC" name="VIELM3TR313 SA.1_OC" kind="DISCONNECTOR" retained="false" open="false" node1="0" node2="21"/>
                <iidm:switch id="VIELMP3_VIELM3B.ROC.1 SA.1_OC" name="VIELM3B.ROC.1 SA.1_OC" kind="DISCONNECTOR" retained="false" open="true" node1="0" node2="20"/>
                <iidm:switch id="VIELMP3_VIELM3TR312 SA.2_OC" name="VIELM3TR312 SA.2_OC" kind="DISCONNECTOR" retained="false" open="false" node1="1" node2="23"/>
                <iidm:switch id="VIELMP3_VIELM3B.ROC.2 SA.1_OC" name="VIELM3B.ROC.2 SA.1_OC" kind="DISCONNECTOR" retained="false" open="false" node1="0" node2="24"/>
                <iidm:switch id="VIELMP3_VIELM3VENAR.1 SA.2_OC" name="VIELM3VENAR.1 SA.2_OC" kind="DISCONNECTOR" retained="false" open="false" node1="1" node2="25"/>
                <iidm:switch id="VIELMP3_VIELM3VERRE.1 SA.2_OC" name="VIELM3VERRE.1 SA.2_OC" kind="DISCONNECTOR" retained="false" open="false" node1="1" node2="15"/>
                <iidm:switch id="VIELMP3_VIELM3SAULI.1 SA.1_OC" name="VIELM3SAULI.1 SA.1_OC" kind="DISCONNECTOR" retained="false" open="false" node1="0" node2="17"/>
                <iidm:switch id="VIELMP3_VIELM3ZE.CR.1 SA.1_OC" name="VIELM3ZE.CR.1 SA.1_OC" kind="DISCONNECTOR" retained="false" open="true" node1="0" node2="26"/>
                <iidm:switch id="VIELMP3_VIELM3TR635 SA.1_OC" name="VIELM3TR635 SA.1_OC" kind="DISCONNECTOR" retained="false" open="true" node1="0" node2="27"/>
                <iidm:switch id="VIELMP3_VIELM3ZE.CR.1 SA.2_OC" name="VIELM3ZE.CR.1 SA.2_OC" kind="DISCONNECTOR" retained="false" open="false" node1="1" node2="26"/>
                <iidm:switch id="VIELMP3_VIELM3TR312 SA.1_OC" name="VIELM3TR312 SA.1_OC" kind="DISCONNECTOR" retained="false" open="true" node1="0" node2="23"/>
                <iidm:switch id="VIELMP3_VIELM3COUPL SA.1_OC" name="VIELM3COUPL SA.1_OC" kind="DISCONNECTOR" retained="false" open="false" node1="28" node2="0"/>
                <iidm:switch id="VIELMP3_VIELM3TR311 SA.2_OC" name="VIELM3TR311 SA.2_OC" kind="DISCONNECTOR" retained="false" open="true" node1="1" node2="29"/>
                <iidm:switch id="VIELMP3_VIELM3TR635 SA.2_OC" name="VIELM3TR635 SA.2_OC" kind="DISCONNECTOR" retained="false" open="false" node1="1" node2="27"/>
                <iidm:switch id="VIELMP3_VIELM3B.ROC.2 SA.2_OC" name="VIELM3B.ROC.2 SA.2_OC" kind="DISCONNECTOR" retained="false" open="true" node1="1" node2="24"/>
                <iidm:switch id="VIELMP3_VIELM3TR634 SA.1_OC" name="VIELM3TR634 SA.1_OC" kind="DISCONNECTOR" retained="false" open="false" node1="0" node2="19"/>
                <iidm:switch id="VIELMP3_VIELM3VENAR.1 SA.1_OC" name="VIELM3VENAR.1 SA.1_OC" kind="DISCONNECTOR" retained="false" open="true" node1="0" node2="25"/>
                <iidm:switch id="VIELMP3_VIELM3TR311 SA.1_OC" name="VIELM3TR311 SA.1_OC" kind="DISCONNECTOR" retained="false" open="false" node1="0" node2="29"/>
                <iidm:switch id="VIELMP3_VIELM3TR313 DJ.HT_OC" name="VIELM3TR313 DJ.HT_OC" kind="BREAKER" retained="true" open="false" node1="21" node2="34"/>
                <iidm:switch id="VIELMP3_VIELM3TR312 DJ.HT_OC" name="VIELM3TR312 DJ.HT_OC" kind="BREAKER" retained="true" open="false" node1="23" node2="32"/>
                <iidm:switch id="VIELMP3_VIELM3COUPL DJ_OC" name="VIELM3COUPL DJ_OC" kind="BREAKER" retained="true" open="false" node1="22" node2="28"/>
                <iidm:switch id="VIELMP3_VIELM3ZPOIS.1 DJ_OC" name="VIELM3ZPOIS.1 DJ_OC" kind="BREAKER" retained="true" open="false" node1="16" node2="12"/>
                <iidm:switch id="VIELMP3_VIELM3VERRE.2 DJ_OC" name="VIELM3VERRE.2 DJ_OC" kind="BREAKER" retained="true" open="false" node1="18" node2="8"/>
                <iidm:switch id="VIELMP3_VIELM3SAULI.1 DJ_OC" name="VIELM3SAULI.1 DJ_OC" kind="BREAKER" retained="true" open="false" node1="17" node2="7"/>
                <iidm:switch id="VIELMP3_VIELM3VERRE.1 DJ_OC" name="VIELM3VERRE.1 DJ_OC" kind="BREAKER" retained="true" open="false" node1="15" node2="13"/>
                <iidm:switch id="VIELMP3_VIELM3B.ROC.2 DJ_OC" name="VIELM3B.ROC.2 DJ_OC" kind="BREAKER" retained="true" open="false" node1="24" node2="9"/>
                <iidm:switch id="VIELMP3_VIELM3VENAR.1 DJ_OC" name="VIELM3VENAR.1 DJ_OC" kind="BREAKER" retained="true" open="false" node1="25" node2="11"/>
                <iidm:switch id="VIELMP3_VIELM3ZE.CR.1 DJ_OC" name="VIELM3ZE.CR.1 DJ_OC" kind="BREAKER" retained="true" open="false" node1="26" node2="10"/>
                <iidm:switch id="VIELMP3_VIELM3B.ROC.1 DJ_OC" name="VIELM3B.ROC.1 DJ_OC" kind="BREAKER" retained="true" open="false" node1="20" node2="14"/>
                <iidm:switch id="VIELMP3_VIELM3TR635 DJ_OC" name="VIELM3TR635 DJ_OC" kind="BREAKER" retained="true" open="false" node1="27" node2="5"/>
                <iidm:switch id="VIELMP3_VIELM3TR311 DJ.HT_OC" name="VIELM3TR311 DJ.HT_OC" kind="BREAKER" retained="true" open="false" node1="29" node2="30"/>
                <iidm:switch id="VIELMP3_VIELM3TR634 DJ_OC" name="VIELM3TR634 DJ_OC" kind="BREAKER" retained="true" open="false" node1="19" node2="6"/>
                <iidm:switch id="VIELMP3_VIELMP3-N1_DJ_F" name="VIELMP3-N1_DJ_F" kind="BREAKER" retained="true" open="false" fictitious="true" node1="31" node2="30"/>
                <iidm:switch id="VIELMP3_VIELMP3-VIELM3TR311_DJ_F" name="VIELMP3-VIELM3TR311_DJ_F" kind="BREAKER" retained="true" open="false" fictitious="true" node1="3" node2="30"/>
                <iidm:switch id="VIELMP3_VIELMP3-N2_DJ_F" name="VIELMP3-N2_DJ_F" kind="BREAKER" retained="true" open="false" fictitious="true" node1="33" node2="32"/>
                <iidm:switch id="VIELMP3_VIELMP3-VIELM3TR312_DJ_F" name="VIELMP3-VIELM3TR312_DJ_F" kind="BREAKER" retained="true" open="false" fictitious="true" node1="4" node2="32"/>
                <iidm:switch id="VIELMP3_VIELMP3-N3_DJ_F" name="VIELMP3-N3_DJ_F" kind="BREAKER" retained="true" open="false" fictitious="true" node1="35" node2="34"/>
                <iidm:switch id="VIELMP3_VIELMP3-VIELM3TR313_DJ_F" name="VIELMP3-VIELM3TR313_DJ_F" kind="BREAKER" retained="true" open="false" fictitious="true" node1="2" node2="34"/>
                <iidm:switch id="VIELMP3_Disj VIELMINF" name="Disj VIELMINF" kind="BREAKER" retained="true" open="true" node1="36" node2="30"/>
                <iidm:switch id="VIELMP3_Disj VIELMING" name="Disj VIELMING" kind="BREAKER" retained="true" open="true" node1="37" node2="32"/>
            </iidm:nodeBreakerTopology>
            <iidm:generator id="VIELMIN1" energySource="WIND" minP="0.0" maxP="30.0" voltageRegulatorOn="false" targetP="4.300000190734863" targetV="65.14747619628906" targetQ="0.0" node="31" p="-4.300000190734863" q="-0.0">
                <iidm:property name="genreCvg" value="EOLIEN"/>
                <iidm:property name="codeOI" value="VIELMIN1"/>
                <iidm:reactiveCapabilityCurve>
                    <iidm:point p="0.0" minQ="0.0" maxQ="0.0"/>
                    <iidm:point p="30.0" minQ="0.0" maxQ="0.0"/>
                </iidm:reactiveCapabilityCurve>
            </iidm:generator>
            <iidm:generator id="VIELMIN2" energySource="WIND" minP="0.0" maxP="32.0" voltageRegulatorOn="false" targetP="5.400000095367432" targetV="65.14747619628906" targetQ="0.0" node="33" p="-5.400000095367432" q="-0.0">
                <iidm:property name="genreCvg" value="EOLIEN"/>
                <iidm:property name="codeOI" value="VIELMIN2"/>
                <iidm:reactiveCapabilityCurve>
                    <iidm:point p="0.0" minQ="0.0" maxQ="0.0"/>
                    <iidm:point p="32.0" minQ="0.0" maxQ="0.0"/>
                </iidm:reactiveCapabilityCurve>
            </iidm:generator>
            <iidm:generator id="VIELMIN3" energySource="WIND" minP="0.0" maxP="21.600000381469727" voltageRegulatorOn="false" targetP="6.800000190734863" targetV="65.14747619628906" targetQ="0.0" node="35" p="-6.800000190734863" q="-0.0">
                <iidm:property name="genreCvg" value="EOLIEN"/>
                <iidm:property name="codeOI" value="VIELMIN3"/>
                <iidm:reactiveCapabilityCurve>
                    <iidm:point p="0.0" minQ="0.0" maxQ="0.0"/>
                    <iidm:point p="21.600000381469727" minQ="0.0" maxQ="0.0"/>
                </iidm:reactiveCapabilityCurve>
            </iidm:generator>
            <iidm:generator id="VIELMINF" energySource="SOLAR" minP="0.0" maxP="3.0" voltageRegulatorOn="false" targetP="0.0" targetV="0.0" targetQ="0.0" node="36">
                <iidm:property name="genreCvg" value="PHOTOVOLTAIQUE"/>
                <iidm:property name="codeOI" value="VIELMINF"/>
                <iidm:reactiveCapabilityCurve>
                    <iidm:point p="0.0" minQ="0.0" maxQ="0.0"/>
                    <iidm:point p="3.0" minQ="0.0" maxQ="0.0"/>
                </iidm:reactiveCapabilityCurve>
            </iidm:generator>
            <iidm:generator id="VIELMING" energySource="SOLAR" minP="0.0" maxP="3.0" voltageRegulatorOn="false" targetP="0.0" targetV="0.0" targetQ="0.0" node="37">
                <iidm:property name="genreCvg" value="PHOTOVOLTAIQUE"/>
                <iidm:property name="codeOI" value="VIELMING"/>
                <iidm:reactiveCapabilityCurve>
                    <iidm:point p="0.0" minQ="0.0" maxQ="0.0"/>
                    <iidm:point p="3.0" minQ="0.0" maxQ="0.0"/>
                </iidm:reactiveCapabilityCurve>
            </iidm:generator>
            <iidm:load id="VIELM3TR313" loadType="UNDEFINED" p0="1.8260375261306763" q0="-4.105822563171387" node="2" p="1.8260375261306763" q="-4.105822563171387">
                <iidm:property name="codeOI" value="VIELM-Y313"/>
            </iidm:load>
            <iidm:load id="VIELM3TR311" loadType="UNDEFINED" p0="1.8260375261306763" q0="-4.105822563171387" node="3" p="1.8260375261306763" q="-4.105822563171387">
                <iidm:property name="codeOI" value="VIELM-Y311"/>
            </iidm:load>
            <iidm:load id="VIELM3TR312" loadType="UNDEFINED" p0="1.8260375261306763" q0="-4.105822563171387" node="4" p="1.8260375261306763" q="-4.105822563171387">
                <iidm:property name="codeOI" value="VIELM-Y312"/>
            </iidm:load>
            <iidm:load id="SAULIL31VIELM" loadType="FICTITIOUS" p0="7.842736671390867" q0="-6.890806833101379" node="7" p="7.842736671390867" q="-6.890806833101379"/>
            <iidm:load id="VERREL32VIELM" loadType="FICTITIOUS" p0="-5.436161751837176" q0="-4.933189984507294" node="8" p="-5.436161751837176" q="-4.933189984507294"/>
            <iidm:load id="VIELML31ZE.CR" loadType="FICTITIOUS" p0="0.5804924144713084" q0="-5.608041898912347" node="10" p="0.5804924144713084" q="-5.608041898912347"/>
            <iidm:load id="VENARL31VIELM" loadType="FICTITIOUS" p0="-1.8670461571178407" q0="-2.711983549282394" node="11" p="-1.8670461571178407" q="-2.711983549282394"/>
            <iidm:load id="VIELML31ZPOIS" loadType="FICTITIOUS" p0="1.1993371984431178E-4" q0="-0.46140164724462807" node="12" p="1.1993371984431178E-4" q="-0.46140164724462807"/>
...